Circuit: * C:\Users\Adriel\Desktop\Informacion-de-Prioridad\TEC\2024\Semestre_2\Fundamentos De Arquitectura De Computadores\Evaluaciones\ProyectoIndividual\Circuito Base\Circuito Base.asc

WARNING: Less than two connections to node BUFFER_04:U1:UA:TEST.  This node is used by E:BUFFER_04:U1:UA:TEST.
WARNING: Less than two connections to node BUFFER_04:U1:UA:VTH_DIFF.  This node is used by E:BUFFER_04:U1:UA:VTHDIFF.
WARNING: Less than two connections to node BUFFER_04:U1:UB:TEST.  This node is used by E:BUFFER_04:U1:UB:TEST.
WARNING: Less than two connections to node BUFFER_04:U1:UB:VTH_DIFF.  This node is used by E:BUFFER_04:U1:UB:VTHDIFF.
WARNING: Less than two connections to node BUFFER_04:U1:UOEZ:TEST.  This node is used by E:BUFFER_04:U1:UOEZ:TEST.
WARNING: Less than two connections to node BUFFER_04:U1:UOEZ:VTH_DIFF.  This node is used by E:BUFFER_04:U1:UOEZ:VTHDIFF.
WARNING: Less than two connections to node BUFFER_03:U1:UA:TEST.  This node is used by E:BUFFER_03:U1:UA:TEST.
WARNING: Less than two connections to node BUFFER_03:U1:UA:VTH_DIFF.  This node is used by E:BUFFER_03:U1:UA:VTHDIFF.
WARNING: Less than two connections to node BUFFER_03:U1:UB:TEST.  This node is used by E:BUFFER_03:U1:UB:TEST.
WARNING: Less than two connections to node BUFFER_03:U1:UB:VTH_DIFF.  This node is used by E:BUFFER_03:U1:UB:VTHDIFF.
WARNING: Less than two connections to node BUFFER_03:U1:UOEZ:TEST.  This node is used by E:BUFFER_03:U1:UOEZ:TEST.
WARNING: Less than two connections to node BUFFER_03:U1:UOEZ:VTH_DIFF.  This node is used by E:BUFFER_03:U1:UOEZ:VTHDIFF.
WARNING: Less than two connections to node BUFFER_02:U1:UA:TEST.  This node is used by E:BUFFER_02:U1:UA:TEST.
WARNING: Less than two connections to node BUFFER_02:U1:UA:VTH_DIFF.  This node is used by E:BUFFER_02:U1:UA:VTHDIFF.
WARNING: Less than two connections to node BUFFER_02:U1:UB:TEST.  This node is used by E:BUFFER_02:U1:UB:TEST.
WARNING: Less than two connections to node BUFFER_02:U1:UB:VTH_DIFF.  This node is used by E:BUFFER_02:U1:UB:VTHDIFF.
WARNING: Less than two connections to node BUFFER_02:U1:UOEZ:TEST.  This node is used by E:BUFFER_02:U1:UOEZ:TEST.
WARNING: Less than two connections to node BUFFER_02:U1:UOEZ:VTH_DIFF.  This node is used by E:BUFFER_02:U1:UOEZ:VTHDIFF.
WARNING: Less than two connections to node BUFFER_01:U1:UA:TEST.  This node is used by E:BUFFER_01:U1:UA:TEST.
WARNING: Less than two connections to node BUFFER_01:U1:UA:VTH_DIFF.  This node is used by E:BUFFER_01:U1:UA:VTHDIFF.
WARNING: Less than two connections to node BUFFER_01:U1:UB:TEST.  This node is used by E:BUFFER_01:U1:UB:TEST.
WARNING: Less than two connections to node BUFFER_01:U1:UB:VTH_DIFF.  This node is used by E:BUFFER_01:U1:UB:VTHDIFF.
WARNING: Less than two connections to node BUFFER_01:U1:UOEZ:TEST.  This node is used by E:BUFFER_01:U1:UOEZ:TEST.
WARNING: Less than two connections to node BUFFER_01:U1:UOEZ:VTH_DIFF.  This node is used by E:BUFFER_01:U1:UOEZ:VTHDIFF.
WARNING: Less than two connections to node AND_DESACOPLE:U1:UA:TEST.  This node is used by E:AND_DESACOPLE:U1:UA:TEST.
WARNING: Less than two connections to node AND_DESACOPLE:U1:UA:VTH_DIFF.  This node is used by E:AND_DESACOPLE:U1:UA:VTHDIFF.
WARNING: Less than two connections to node AND_DESACOPLE:U1:UB:TEST.  This node is used by E:AND_DESACOPLE:U1:UB:TEST.
WARNING: Less than two connections to node AND_DESACOPLE:U1:UB:VTH_DIFF.  This node is used by E:AND_DESACOPLE:U1:UB:VTHDIFF.
Direct Newton iteration for .op point succeeded.

Date: Thu Aug 15 15:12:56 2024
Total elapsed time: 0.537 seconds.

tnom = 27
temp = 27
method = modified trap
totiter = 2107
traniter = 2090
tranpoints = 1046
accept = 1046
rejected = 0
matrix size = 929
fillins = 151
solver = Normal
Thread vector: 123.4/43.3[16] 5.8/2.3[16] 49.1/13.0[16] 1.4/1.3[2]  2592/500
Matrix Compiler1: 31.41 KB object code size  10.0/5.2/[2.3]
Matrix Compiler2: 58.82 KB object code size  6.2/10.8/[3.3]

