Circuit: * C:\Users\Adriel\Desktop\Informacion-de-Prioridad\TEC\2024\Semestre_2\Fundamentos De Arquitectura De Computadores\Evaluaciones\ProyectoIndividual\achaves_fac_2024_s2\Proyecto1\Circuito Base\Circuito Base.asc

WARNING: Less than two connections to node BUFFER_04:U1:UA:TEST.  This node is used by E:BUFFER_04:U1:UA:TEST.
WARNING: Less than two connections to node BUFFER_04:U1:UA:VTH_DIFF.  This node is used by E:BUFFER_04:U1:UA:VTHDIFF.
WARNING: Less than two connections to node BUFFER_04:U1:UB:TEST.  This node is used by E:BUFFER_04:U1:UB:TEST.
WARNING: Less than two connections to node BUFFER_04:U1:UB:VTH_DIFF.  This node is used by E:BUFFER_04:U1:UB:VTHDIFF.
WARNING: Less than two connections to node BUFFER_04:U1:UOEZ:TEST.  This node is used by E:BUFFER_04:U1:UOEZ:TEST.
WARNING: Less than two connections to node BUFFER_04:U1:UOEZ:VTH_DIFF.  This node is used by E:BUFFER_04:U1:UOEZ:VTHDIFF.
WARNING: Less than two connections to node BUFFER_03:U1:UA:TEST.  This node is used by E:BUFFER_03:U1:UA:TEST.
WARNING: Less than two connections to node BUFFER_03:U1:UA:VTH_DIFF.  This node is used by E:BUFFER_03:U1:UA:VTHDIFF.
WARNING: Less than two connections to node BUFFER_03:U1:UB:TEST.  This node is used by E:BUFFER_03:U1:UB:TEST.
WARNING: Less than two connections to node BUFFER_03:U1:UB:VTH_DIFF.  This node is used by E:BUFFER_03:U1:UB:VTHDIFF.
WARNING: Less than two connections to node BUFFER_03:U1:UOEZ:TEST.  This node is used by E:BUFFER_03:U1:UOEZ:TEST.
WARNING: Less than two connections to node BUFFER_03:U1:UOEZ:VTH_DIFF.  This node is used by E:BUFFER_03:U1:UOEZ:VTHDIFF.
WARNING: Less than two connections to node BUFFER_02:U1:UA:TEST.  This node is used by E:BUFFER_02:U1:UA:TEST.
WARNING: Less than two connections to node BUFFER_02:U1:UA:VTH_DIFF.  This node is used by E:BUFFER_02:U1:UA:VTHDIFF.
WARNING: Less than two connections to node BUFFER_02:U1:UB:TEST.  This node is used by E:BUFFER_02:U1:UB:TEST.
WARNING: Less than two connections to node BUFFER_02:U1:UB:VTH_DIFF.  This node is used by E:BUFFER_02:U1:UB:VTHDIFF.
WARNING: Less than two connections to node BUFFER_02:U1:UOEZ:TEST.  This node is used by E:BUFFER_02:U1:UOEZ:TEST.
WARNING: Less than two connections to node BUFFER_02:U1:UOEZ:VTH_DIFF.  This node is used by E:BUFFER_02:U1:UOEZ:VTHDIFF.
WARNING: Less than two connections to node BUFFER_01:U1:UA:TEST.  This node is used by E:BUFFER_01:U1:UA:TEST.
WARNING: Less than two connections to node BUFFER_01:U1:UA:VTH_DIFF.  This node is used by E:BUFFER_01:U1:UA:VTHDIFF.
WARNING: Less than two connections to node BUFFER_01:U1:UB:TEST.  This node is used by E:BUFFER_01:U1:UB:TEST.
WARNING: Less than two connections to node BUFFER_01:U1:UB:VTH_DIFF.  This node is used by E:BUFFER_01:U1:UB:VTHDIFF.
WARNING: Less than two connections to node BUFFER_01:U1:UOEZ:TEST.  This node is used by E:BUFFER_01:U1:UOEZ:TEST.
WARNING: Less than two connections to node BUFFER_01:U1:UOEZ:VTH_DIFF.  This node is used by E:BUFFER_01:U1:UOEZ:VTHDIFF.
WARNING: Less than two connections to node AND_DESACOPLE:U1:UA:TEST.  This node is used by E:AND_DESACOPLE:U1:UA:TEST.
WARNING: Less than two connections to node AND_DESACOPLE:U1:UA:VTH_DIFF.  This node is used by E:AND_DESACOPLE:U1:UA:VTHDIFF.
WARNING: Less than two connections to node AND_DESACOPLE:U1:UB:TEST.  This node is used by E:AND_DESACOPLE:U1:UB:TEST.
WARNING: Less than two connections to node AND_DESACOPLE:U1:UB:VTH_DIFF.  This node is used by E:AND_DESACOPLE:U1:UB:VTHDIFF.
Direct Newton iteration for .op point succeeded.

Date: Tue Aug 20 18:25:21 2024
Total elapsed time: 0.767 seconds.

tnom = 27
temp = 27
method = modified trap
totiter = 2109
traniter = 2094
tranpoints = 1048
accept = 1048
rejected = 0
matrix size = 929
fillins = 163
solver = Normal
Thread vector: 101.3/30.5[16] 6.2/2.2[16] 43.4/14.4[16] 1.3/1.4[1]  2592/500
Matrix Compiler1: 31.44 KB object code size  10.0/3.7/[2.0]
Matrix Compiler2: 59.07 KB object code size  5.3/9.0/[2.5]

